goiania_leste_dss/TR4/CTMT_5008500.dss
! ==============================================================================
! ALIMENTADOR CTMT_5008500 - GOIANIA LESTE-27
! Subestacao: Trafo TR4 (GOL-S-TRF-TR4) | Barra MT: 6440 -> PAC_INI: 95463885008500
! ==============================================================================

! 1. Disjuntor de Saida MT do Alimentador
new line.DJ_5008500 phases=3 bus1=6440 bus2=95463885008500 switch=y r1=1e-4 x1=1e-4 length=0.001 units=km

! 2. Linhas de Media Tensao (MT)
new line.52874543 phases=3 bus1=80444265008500.1.2.3 bus2=80441005008500.1.2.3 r1=0.62 x1=0.47 length=0.019402 units=km normamps=230.0
new line.52874544 phases=3 bus1=80444275008500.1.2.3 bus2=80444265008500.1.2.3 r1=0.62 x1=0.47 length=0.010427 units=km normamps=230.0
new line.52874570 phases=3 bus1=80440955008500.1.2.3 bus2=80440925008500.1.2.3 r1=1.551 x1=0.49 length=0.029774 units=km normamps=114.0
new line.52874571 phases=3 bus1=80440965008500.1.2.3 bus2=80440955008500.1.2.3 r1=1.551 x1=0.49 length=0.029199 units=km normamps=114.0
new line.52874572 phases=3 bus1=80440925008500.1.2.3 bus2=80440975008500.1.2.3 r1=1.551 x1=0.49 length=0.027072 units=km normamps=114.0
new line.52874573 phases=3 bus1=80440985008500.1.2.3 bus2=80440975008500.1.2.3 r1=1.551 x1=0.49 length=0.00735 units=km normamps=114.0
new line.52874574 phases=3 bus1=80440995008500.1.2.3 bus2=80440955008500.1.2.3 r1=0.975 x1=0.47 length=0.030762 units=km normamps=152.0
new line.52874575 phases=3 bus1=80441005008500.1.2.3 bus2=80440995008500.1.2.3 r1=0.975 x1=0.47 length=0.032017 units=km normamps=152.0
new line.52874603 phases=3 bus1=80441425008500.1.2.3 bus2=80441415008500.1.2.3 r1=1.551 x1=0.49 length=0.006044 units=km normamps=114.0
new line.52879029 phases=3 bus1=80472545008500.1.2.3 bus2=80472535008500B.1.2.3 r1=0.236 x1=0.27 length=0.031746 units=km normamps=456.0
new line.52879099 phases=3 bus1=80441065008500.1.2.3 bus2=80441055008500.1.2.3 r1=1.551 x1=0.49 length=0.019216 units=km normamps=114.0
new line.52879100 phases=3 bus1=80441075008500.1.2.3 bus2=80441065008500.1.2.3 r1=1.551 x1=0.49 length=0.021006 units=km normamps=114.0
new line.52879101 phases=3 bus1=80472905008500.1.2.3 bus2=80441075008500.1.2.3 r1=1.551 x1=0.49 length=0.001483 units=km normamps=114.0
new line.52879102 phases=3 bus1=80441055008500.1.2.3 bus2=80472945008500.1.2.3 r1=0.236 x1=0.27 length=0.037809 units=km normamps=456.0
new line.52879103 phases=3 bus1=80472935008500.1.2.3 bus2=80472945008500.1.2.3 r1=0.236 x1=0.27 length=0.01007 units=km normamps=456.0
new line.52879104 phases=3 bus1=80472945008500.1.2.3 bus2=80472955008500.1.2.3 r1=1.551 x1=0.49 length=0.009426 units=km normamps=114.0
new line.52879116 phases=3 bus1=80473115008500.1.2.3 bus2=80475165008500.1.2.3 r1=0.236 x1=0.27 length=0.035676 units=km normamps=456.0
new line.52879117 phases=3 bus1=80475165008500.1.2.3 bus2=80475175008500.1.2.3 r1=0.236 x1=0.27 length=0.028968 units=km normamps=456.0
new line.52879118 phases=3 bus1=80475175008500.1.2.3 bus2=80475185008500.1.2.3 r1=0.236 x1=0.27 length=0.040083 units=km normamps=456.0
new line.52879162 phases=3 bus1=80472945008500.1.2.3 bus2=80472985008500.1.2.3 r1=0.236 x1=0.27 length=0.029279 units=km normamps=456.0
new line.52879163 phases=3 bus1=80472985008500.1.2.3 bus2=80472995008500.1.2.3 r1=0.236 x1=0.27 length=0.038489 units=km normamps=456.0
new line.52879164 phases=3 bus1=80473005008500.1.2.3 bus2=80472545008500.1.2.3 r1=0.236 x1=0.27 length=0.039189 units=km normamps=456.0
new line.52879165 phases=3 bus1=80473015008500.1.2.3 bus2=80473005008500.1.2.3 r1=0.236 x1=0.27 length=0.026838 units=km normamps=456.0
new line.52879166 phases=3 bus1=80472995008500.1.2.3 bus2=80473015008500.1.2.3 r1=0.236 x1=0.27 length=0.027814 units=km normamps=456.0
new line.52879167 phases=3 bus1=80473105008500.1.2.3 bus2=80473115008500.1.2.3 r1=0.236 x1=0.27 length=0.033383 units=km normamps=456.0
new line.54241792 phases=3 bus1=80473115008500.1.2.3 bus2=80474885008500.1.2.3 r1=0.975 x1=0.47 length=0.012702 units=km normamps=152.0
new line.54241793 phases=3 bus1=80474885008500.1.2.3 bus2=80473675008500.1.2.3 r1=0.975 x1=0.47 length=0.025572 units=km normamps=152.0
new line.54241794 phases=3 bus1=80473675008500.1.2.3 bus2=80473665008500.1.2.3 r1=0.975 x1=0.47 length=0.037496 units=km normamps=152.0
new line.54241795 phases=3 bus1=80473665008500.1.2.3 bus2=80473655008500.1.2.3 r1=0.975 x1=0.47 length=0.034425 units=km normamps=152.0
new line.54241796 phases=3 bus1=80473655008500.1.2.3 bus2=80473065008500.1.2.3 r1=0.975 x1=0.47 length=0.031518 units=km normamps=152.0
new line.54241797 phases=3 bus1=80473065008500.1.2.3 bus2=80473055008500.1.2.3 r1=0.975 x1=0.47 length=0.033611 units=km normamps=152.0
new line.54241798 phases=3 bus1=80473055008500.1.2.3 bus2=87173425008500.1.2.3 r1=0.732 x1=0.31 length=0.022895 units=km normamps=225.0
new line.54241799 phases=3 bus1=80473675008500.1.2.3 bus2=87173415008500.1.2.3 r1=0.732 x1=0.31 length=0.016983 units=km normamps=225.0
new line.54362376 phases=3 bus1=80472955008500.1.2.3 bus2=80472965008500.1.2.3 r1=0.236 x1=0.27 length=0.035257 units=km normamps=456.0
new line.54507694 phases=3 bus1=80441075008500.1.2.3 bus2=80441085008500.1.2.3 r1=0.975 x1=0.47 length=0.029898 units=km normamps=152.0
new line.54507695 phases=3 bus1=80441085008500.1.2.3 bus2=89178725008500.1.2.3 r1=0.975 x1=0.47 length=0.010417 units=km normamps=152.0
new line.54507696 phases=3 bus1=89178725008500.1.2.3 bus2=89178735008500.1.2.3 r1=0.732 x1=0.31 length=0.027463 units=km normamps=225.0
new line.54547946 phases=3 bus1=80444275008500.1.2.3 bus2=80473525008500.1.2.3 r1=0.975 x1=0.47 length=0.008026 units=km normamps=152.0
new line.54547947 phases=3 bus1=80473535008500.1.2.3 bus2=80473525008500.1.2.3 r1=0.732 x1=0.31 length=0.026265 units=km normamps=225.0
new line.54547949 phases=3 bus1=89482415008500.1.2.3 bus2=80473535008500.1.2.3 r1=0.732 x1=0.31 length=0.030962 units=km normamps=225.0
new line.54579212 phases=3 bus1=89727325008500.1.2.3 bus2=89482415008500.1.2.3 r1=0.732 x1=0.31 length=0.005965 units=km normamps=225.0
new line.55316811 phases=3 bus1=95463935008500.1.2.3 bus2=80439865008500.1.2.3 r1=0.236 x1=0.27 length=0.017364 units=km normamps=456.0
new line.55316812 phases=3 bus1=80439865008500.1.2.3 bus2=95463925008500B.1.2.3 r1=0.236 x1=0.27 length=0.020358 units=km normamps=456.0
new line.55317999 phases=3 bus1=95463885008500.1.2.3 bus2=95512445008500.1.2.3 r1=0.236 x1=0.27 length=0.001899 units=km normamps=456.0
new line.55318000 phases=3 bus1=95512445008500.1.2.3 bus2=95463925008500.1.2.3 r1=0.236 x1=0.27 length=0.036586 units=km normamps=456.0
new line.55555192 phases=3 bus1=80473105008500.1.2.3 bus2=80473095008500.1.2.3 r1=0.236 x1=0.27 length=0.042555 units=km normamps=456.0
new line.55555225 phases=3 bus1=80473095008500.1.2.3 bus2=80473085008500B.1.2.3 r1=0.236 x1=0.27 length=0.012284 units=km normamps=456.0
new line.55570384 phases=3 bus1=95463935008500.1.2.3 bus2=80439855008500.1.2.3 r1=0.236 x1=0.27 length=0.026498 units=km normamps=456.0
new line.55570385 phases=3 bus1=80439855008500.1.2.3 bus2=80474995008500.1.2.3 r1=0.236 x1=0.27 length=0.041451 units=km normamps=456.0
new line.55570388 phases=3 bus1=80474995008500.1.2.3 bus2=80475005008500.1.2.3 r1=0.236 x1=0.27 length=0.051718 units=km normamps=456.0
new line.55570389 phases=3 bus1=80475005008500.1.2.3 bus2=80475015008500.1.2.3 r1=0.236 x1=0.27 length=0.044391 units=km normamps=456.0
new line.55570390 phases=3 bus1=80475015008500.1.2.3 bus2=95442075008500.1.2.3 r1=0.236 x1=0.27 length=0.026518 units=km normamps=456.0
new line.55570391 phases=3 bus1=95442075008500.1.2.3 bus2=80475075008500.1.2.3 r1=0.236 x1=0.27 length=0.018943 units=km normamps=456.0
new line.55570392 phases=3 bus1=80475075008500.1.2.3 bus2=80475085008500.1.2.3 r1=0.236 x1=0.27 length=0.041064 units=km normamps=456.0
new line.55570393 phases=3 bus1=80475085008500.1.2.3 bus2=80475105008500.1.2.3 r1=0.236 x1=0.27 length=0.022331 units=km normamps=456.0
new line.55570395 phases=3 bus1=80475105008500.1.2.3 bus2=80475115008500.1.2.3 r1=0.236 x1=0.27 length=0.021349 units=km normamps=456.0
new line.55573768 phases=3 bus1=80441415008500.1.2.3 bus2=80473025008500.1.2.3 r1=0.236 x1=0.27 length=0.014539 units=km normamps=456.0
new line.55573769 phases=3 bus1=80473025008500.1.2.3 bus2=80473075008500.1.2.3 r1=0.236 x1=0.27 length=0.039308 units=km normamps=456.0
new line.55573785 phases=3 bus1=97425515008500.1.2.3 bus2=88961975008500.1.2.3 r1=0.732 x1=0.31 length=0.006496 units=km normamps=225.0
new line.55573786 phases=3 bus1=80473075008500.1.2.3 bus2=97425515008500.1.2.3 r1=0.236 x1=0.27 length=0.031275 units=km normamps=456.0
new line.55573787 phases=3 bus1=97425515008500.1.2.3 bus2=80473085008500B.1.2.3 r1=0.236 x1=0.27 length=0.012006 units=km normamps=456.0
new line.55594409 phases=3 bus1=80441415008500.1.2.3 bus2=80472895008500.1.2.3 r1=0.236 x1=0.27 length=0.017202 units=km normamps=456.0
new line.55594410 phases=3 bus1=80472895008500.1.2.3 bus2=80440945008500.1.2.3 r1=0.236 x1=0.27 length=0.03643 units=km normamps=456.0
new line.55598026 phases=3 bus1=80440945008500B.1.2.3 bus2=80440925008500.1.2.3 r1=0.236 x1=0.27 length=0.01124 units=km normamps=456.0
new line.55598027 phases=3 bus1=80440945008500.1.2.3 bus2=80440915008500.1.2.3 r1=0.236 x1=0.27 length=0.041902 units=km normamps=456.0
new line.55610653 phases=3 bus1=80440915008500.1.2.3 bus2=80441325008500.1.2.3 r1=0.236 x1=0.27 length=0.04238 units=km normamps=456.0
new line.55610666 phases=3 bus1=80441325008500.1.2.3 bus2=80441335008500.1.2.3 r1=0.236 x1=0.27 length=0.023935 units=km normamps=456.0
new line.55610667 phases=3 bus1=80441335008500.1.2.3 bus2=80441345008500.1.2.3 r1=0.236 x1=0.27 length=0.035257 units=km normamps=456.0
new line.55610669 phases=3 bus1=80441345008500.1.2.3 bus2=80441355008500.1.2.3 r1=0.236 x1=0.27 length=0.033988 units=km normamps=456.0
new line.55610870 phases=3 bus1=80441355008500.1.2.3 bus2=80441365008500.1.2.3 r1=0.236 x1=0.27 length=0.037218 units=km normamps=456.0
new line.55610871 phases=3 bus1=80441365008500.1.2.3 bus2=80441375008500.1.2.3 r1=0.236 x1=0.27 length=0.031046 units=km normamps=456.0
new line.55610872 phases=3 bus1=80441375008500.1.2.3 bus2=80441235008500.1.2.3 r1=0.236 x1=0.27 length=0.03076 units=km normamps=456.0
new line.55610873 phases=3 bus1=80441235008500.1.2.3 bus2=80472915008500B.1.2.3 r1=0.236 x1=0.27 length=0.041102 units=km normamps=456.0
new line.55610874 phases=3 bus1=80472915008500.1.2.3 bus2=80472925008500.1.2.3 r1=0.236 x1=0.27 length=0.033005 units=km normamps=456.0
new line.55610876 phases=3 bus1=80472925008500.1.2.3 bus2=80472935008500.1.2.3 r1=0.236 x1=0.27 length=0.031747 units=km normamps=456.0
new line.55610903 phases=3 bus1=80472965008500.1.2.3 bus2=80472975008500.1.2.3 r1=0.236 x1=0.27 length=0.032422 units=km normamps=456.0
new line.55611346 phases=3 bus1=80472515008500.1.2.3 bus2=80472495008500.1.2.3 r1=0.236 x1=0.27 length=0.03437 units=km normamps=456.0
new line.55611347 phases=3 bus1=80472495008500.1.2.3 bus2=80472485008500.1.2.3 r1=0.236 x1=0.27 length=0.033533 units=km normamps=456.0
new line.55611357 phases=3 bus1=80472485008500.1.2.3 bus2=80472795008500.1.2.3 r1=0.236 x1=0.27 length=0.039069 units=km normamps=456.0
new line.55622275 phases=3 bus1=80472795008500.1.2.3 bus2=80472805008500.1.2.3 r1=0.236 x1=0.27 length=0.033458 units=km normamps=456.0
new line.55622284 phases=3 bus1=80472805008500.1.2.3 bus2=80472815008500.1.2.3 r1=0.236 x1=0.27 length=0.041479 units=km normamps=456.0
new line.55622285 phases=3 bus1=80472815008500.1.2.3 bus2=80474015008500.1.2.3 r1=0.236 x1=0.27 length=0.026407 units=km normamps=456.0
new line.55622286 phases=3 bus1=80474015008500.1.2.3 bus2=80474025008500.1.2.3 r1=0.236 x1=0.27 length=0.037934 units=km normamps=456.0
new line.55622287 phases=3 bus1=80474025008500.1.2.3 bus2=80474045008500.1.2.3 r1=0.236 x1=0.27 length=0.030384 units=km normamps=456.0
new line.55622294 phases=3 bus1=80474045008500.1.2.3 bus2=96098385008500.1.2.3 r1=0.236 x1=0.27 length=0.015637 units=km normamps=456.0
new line.55639809 phases=3 bus1=80472515008500.1.2.3 bus2=80472525008500.1.2.3 r1=0.236 x1=0.27 length=0.033804 units=km normamps=456.0
new line.55639811 phases=3 bus1=80472525008500.1.2.3 bus2=80472535008500.1.2.3 r1=0.236 x1=0.27 length=0.01337 units=km normamps=456.0
new line.55640943 phases=3 bus1=96098385008500.1.2.3 bus2=96098405008500.1.2.3 r1=0.236 x1=0.27 length=0.00582 units=km normamps=456.0
new line.55895003 phases=3 bus1=99827055008500.1.2.3 bus2=80475015008500.1.2.3 r1=0.236 x1=0.27 length=0.013488 units=km normamps=456.0
new line.88888866561 phases=3 bus1=I888888499725008500.1.2.3 bus2=INT153325008500.1.2.3 r1=1.551 x1=0.47 length=0.001 units=km normamps=125.0
new line.88888866558 phases=3 bus1=I888888499695008500.1.2.3 bus2=I888888499705008500.1.2.3 r1=1.551 x1=0.47 length=0.001 units=km normamps=125.0
new line.88888866562 phases=3 bus1=I888888499735008500.1.2.3 bus2=I888888499695008500.1.2.3 r1=1.551 x1=0.47 length=0.001 units=km normamps=125.0
new line.88888866559 phases=3 bus1=I888888499715008500.1.2.3 bus2=I888888499725008500.1.2.3 r1=1.551 x1=0.47 length=0.001 units=km normamps=125.0
new line.88888866563 phases=3 bus1=I888888499735008500.1.2.3 bus2=I888888499745008500.1.2.3 r1=1.551 x1=0.47 length=0.001 units=km normamps=125.0
new line.88888866560 phases=3 bus1=I888888499715008500.1.2.3 bus2=I888888499705008500.1.2.3 r1=1.551 x1=0.47 length=0.001 units=km normamps=125.0
new line.88888866568 phases=3 bus1=95463885008500.1.2.3 bus2=I888888499695008500.1.2.3 r1=1.551 x1=0.47 length=0.001 units=km normamps=125.0
new line.55841504 phases=3 bus1=80475115008500.1.2.3 bus2=80475125008500.1.2.3 r1=0.236 x1=0.27 length=0.032383 units=km normamps=456.0
new line.55841503 phases=3 bus1=80475185008500.1.2.3 bus2=80475125008500.1.2.3 r1=0.236 x1=0.27 length=0.030732 units=km normamps=456.0
new line.55845208 phases=3 bus1=96098405008500.1.2.3 bus2=80474055008500.1.2.3 r1=0.236 x1=0.27 length=0.01634 units=km normamps=456.0
new line.55845210 phases=3 bus1=80474055008500.1.2.3 bus2=80474065008500.1.2.3 r1=0.236 x1=0.27 length=0.023671 units=km normamps=456.0

! 3. Chaves Seccionadoras MT
new line.SC_5270674 phases=3 bus1=80440945008500.1.2.3 bus2=80440945008500B.1.2.3 switch=y r1=1e-4 x1=1e-4 length=0.001 units=km
new line.SC_5727781 phases=3 bus1=95463925008500.1.2.3 bus2=95463925008500B.1.2.3 switch=y r1=1e-4 x1=1e-4 length=0.001 units=km
new line.SC_5776778 phases=3 bus1=80472915008500.1.2.3 bus2=80472915008500B.1.2.3 switch=y r1=1e-4 x1=1e-4 length=0.001 units=km
new line.SC_5776863 phases=3 bus1=80472535008500.1.2.3 bus2=80472535008500B.1.2.3 switch=y r1=1e-4 x1=1e-4 length=0.001 units=km

! 5. Transformadores MT/BT de Distribuicao
new transformer.UNTRMT_5270730 phases=3 windings=2 %r=1.46 xhl=3.18 kva=112.0
~ wdg=1 bus=80440985008500.1.2.3 conn=delta kv=13.8
~ wdg=2 bus=80440985270730.1.2.3.0 conn=wye kv=0.38

new transformer.UNTRMT_5270732 phases=3 windings=2 %r=1.46 xhl=3.18 kva=112.0
~ wdg=1 bus=80444275008500.1.2.3 conn=delta kv=13.8
~ wdg=2 bus=80444275270732.1.2.3.0 conn=wye kv=0.38

new transformer.UNTRMT_5271174 phases=3 windings=2 %r=1.46 xhl=3.18 kva=112.0
~ wdg=1 bus=80472545008500.1.2.3 conn=delta kv=13.8
~ wdg=2 bus=80472545271174.1.2.3.0 conn=wye kv=0.38

new transformer.UNTRMT_5271182 phases=3 windings=2 %r=1.46 xhl=3.18 kva=112.0
~ wdg=1 bus=80473105008500.1.2.3 conn=delta kv=13.8
~ wdg=2 bus=80473105271182.1.2.3.0 conn=wye kv=0.38

new transformer.UNTRMT_5451476 phases=3 windings=2 %r=1.3 xhl=4.31 kva=225.0
~ wdg=1 bus=87173415008500.1.2.3 conn=delta kv=13.8
~ wdg=2 bus=87173415451476.1.2.3.0 conn=wye kv=0.38

new transformer.UNTRMT_5483807 phases=3 windings=2 %r=1.55 xhl=3.14 kva=75.0
~ wdg=1 bus=80472965008500.1.2.3 conn=delta kv=13.8
~ wdg=2 bus=80472965483807.1.2.3.0 conn=wye kv=0.38

! 6. Linhas de Baixa Tensao (BT)
new line.52879549 phases=3 bus1=80472455271174.1.2.3.0 bus2=80472465271174.1.2.3.0 r1=1.551 x1=0.49 length=0.039192 units=km normamps=114.0
new line.52879558 phases=3 bus1=80472565271174.1.2.3.0 bus2=80472555271174.1.2.3.0 r1=0.975 x1=0.47 length=0.040825 units=km normamps=152.0
new line.52879567 phases=3 bus1=80472925483807.1.2.3.0 bus2=80472935483807.1.2.3.0 r1=0.613 x1=0.45 length=0.031749 units=km normamps=203.0
new line.52879571 phases=3 bus1=80472955483807.1.2.3.0 bus2=80472985483807.1.2.3.0 r1=0.613 x1=0.45 length=0.02776 units=km normamps=203.0
new line.52879573 phases=3 bus1=80473005271174.1.2.3.0 bus2=80472545271174.1.2.3.0 r1=0.613 x1=0.45 length=0.039192 units=km normamps=203.0
new line.52879628 phases=3 bus1=80473025271182.1.2.3.0 bus2=80473035271182.1.2.3.0 r1=0.991 x1=0.1 length=0.013053 units=km normamps=100.0
new line.52879637 phases=3 bus1=80441435271182.1.2.3.0 bus2=80441445271182.1.2.3.0 r1=0.991 x1=0.1 length=0.028034 units=km normamps=100.0
new line.52879651 phases=3 bus1=80475145271182.1.2.3.0 bus2=80475155271182.1.2.3.0 r1=0.991 x1=0.1 length=0.01321 units=km normamps=100.0
new line.52879655 phases=3 bus1=80474895271182.1.2.3.0 bus2=80474885271182.1.2.3.0 r1=0.991 x1=0.1 length=0.012601 units=km normamps=100.0
new line.52879546 phases=3 bus1=80472975483807.1.2.3.0 bus2=88053975483807.1.2.3.0 r1=0.506 x1=0.1 length=0.015483 units=km normamps=157.0
new line.52879547 phases=3 bus1=80472525271174.1.2.3.0 bus2=80472825271174.1.2.3.0 r1=0.984 x1=0.49 length=0.021896 units=km normamps=170.0
new line.52879550 phases=3 bus1=80472465271174.1.2.3.0 bus2=80472475271174.1.2.3.0 r1=1.551 x1=0.49 length=0.046915 units=km normamps=114.0
new line.52879554 phases=3 bus1=80472525271174.1.2.3.0 bus2=80472515271174.1.2.3.0 r1=0.613 x1=0.45 length=0.033744 units=km normamps=203.0
new line.52879555 phases=3 bus1=80472535271174.1.2.3.0 bus2=80472525271174.1.2.3.0 r1=0.613 x1=0.45 length=0.013332 units=km normamps=203.0
new line.52879557 phases=3 bus1=80472555271174.1.2.3.0 bus2=80472535271174.1.2.3.0 r1=0.975 x1=0.47 length=0.035177 units=km normamps=152.0
new line.52879560 phases=3 bus1=80472585271174.1.2.3.0 bus2=80472575271174.1.2.3.0 r1=0.975 x1=0.47 length=0.03987 units=km normamps=152.0
new line.52879563 phases=1 bus1=80472635271174.1.0 bus2=80472625271174.1.0 r1=0.975 x1=0.47 length=0.025855 units=km normamps=152.0
new line.52879568 phases=3 bus1=80472935483807.1.2.3.0 bus2=80472955483807.1.2.3.0 r1=0.975 x1=0.47 length=0.015096 units=km normamps=152.0
new line.52879574 phases=3 bus1=80473015271174.1.2.3.0 bus2=80473005271174.1.2.3.0 r1=0.613 x1=0.45 length=0.026841 units=km normamps=203.0
new line.52879619 phases=3 bus1=80473115271182.1.2.3.0 bus2=80474895271182.1.2.3.0 r1=0.506 x1=0.1 length=0.00903 units=km normamps=157.0
new line.52879622 phases=3 bus1=80473655271182.1.2.3.0 bus2=80473065271182.1.2.3.0 r1=0.991 x1=0.1 length=0.031518 units=km normamps=100.0
new line.52879623 phases=3 bus1=80473665271182.1.2.3.0 bus2=80473655271182.1.2.3.0 r1=0.991 x1=0.1 length=0.034424 units=km normamps=100.0
new line.52879624 phases=3 bus1=80473675271182.1.2.3.0 bus2=80473665271182.1.2.3.0 r1=0.991 x1=0.1 length=0.037496 units=km normamps=100.0
new line.52879626 phases=3 bus1=80472895271182.1.2.3.0 bus2=80441415271182.1.2.3.0 r1=0.991 x1=0.1 length=0.017202 units=km normamps=100.0
new line.52879630 phases=3 bus1=80473045271182.1.2.3.0 bus2=80473055271182.1.2.3.0 r1=0.991 x1=0.1 length=0.025107 units=km normamps=100.0
new line.52879633 phases=3 bus1=80473075271182.1.2.3.0 bus2=80473085271182.1.2.3.0 r1=0.991 x1=0.1 length=0.043204 units=km normamps=100.0
new line.52879634 phases=3 bus1=80473085271182.1.2.3.0 bus2=80473095271182.1.2.3.0 r1=0.506 x1=0.1 length=0.012284 units=km normamps=157.0
new line.52879636 phases=3 bus1=80473105271182.1.2.3.0 bus2=80473115271182.1.2.3.0 r1=0.506 x1=0.1 length=0.033383 units=km normamps=157.0
new line.52879638 phases=3 bus1=80441445271182.1.2.3.0 bus2=80441455271182.1.2.3.0 r1=0.991 x1=0.1 length=0.029807 units=km normamps=100.0
new line.52879649 phases=3 bus1=80472875271182.1.2.3.0 bus2=88755825271182.1.2.3.0 r1=0.991 x1=0.1 length=0.024504 units=km normamps=100.0
new line.52879652 phases=3 bus1=80445095271182.1.2.3.0 bus2=80475155271182.1.2.3.0 r1=0.991 x1=0.1 length=0.022903 units=km normamps=100.0
new line.52879653 phases=3 bus1=80475155271182.1.2.3.0 bus2=80441435271182.1.2.3.0 r1=0.991 x1=0.1 length=0.00818 units=km normamps=100.0
new line.52879658 phases=3 bus1=80445105271182.1.2.3.0 bus2=80445095271182.1.2.3.0 r1=0.991 x1=0.1 length=0.03139 units=km normamps=100.0
new line.52879545 phases=3 bus1=80473905483807.1.2.3.0 bus2=80443085483807.1.2.3.0 r1=0.506 x1=0.1 length=0.032496 units=km normamps=157.0
new line.52879548 phases=3 bus1=80440755271174.1.2.3.0 bus2=80472455271174.1.2.3.0 r1=1.551 x1=0.49 length=0.027979 units=km normamps=114.0
new line.52879551 phases=3 bus1=80472475271174.1.2.3.0 bus2=80472485271174.1.2.3.0 r1=1.551 x1=0.49 length=0.013254 units=km normamps=114.0
new line.52879552 phases=3 bus1=80472495271174.1.2.3.0 bus2=80472485271174.1.2.3.0 r1=0.613 x1=0.45 length=0.033533 units=km normamps=203.0
new line.52879556 phases=3 bus1=80472545271174.1.2.3.0 bus2=80472535271174.1.2.3.0 r1=0.613 x1=0.45 length=0.031739 units=km normamps=203.0
new line.52879561 phases=1 bus1=80472605271174.1.0 bus2=80472585271174.1.0 r1=0.975 x1=0.47 length=0.022074 units=km normamps=152.0
new line.52879562 phases=1 bus1=80472625271174.1.0 bus2=80472605271174.1.0 r1=0.975 x1=0.47 length=0.02186 units=km normamps=152.0
new line.52879566 phases=3 bus1=80472915483807.1.2.3.0 bus2=80472925483807.1.2.3.0 r1=1.551 x1=0.49 length=0.033008 units=km normamps=114.0
new line.52879570 phases=3 bus1=80472965483807.1.2.3.0 bus2=80472975483807.1.2.3.0 r1=0.506 x1=0.1 length=0.035489 units=km normamps=157.0
new line.52879575 phases=3 bus1=80472995271174.1.2.3.0 bus2=80473015271174.1.2.3.0 r1=0.613 x1=0.45 length=0.027816 units=km normamps=203.0
new line.52879620 phases=3 bus1=80474885271182.1.2.3.0 bus2=80473675271182.1.2.3.0 r1=0.991 x1=0.1 length=0.025572 units=km normamps=100.0
new line.52879627 phases=3 bus1=80441415271182.1.2.3.0 bus2=80473025271182.1.2.3.0 r1=0.991 x1=0.1 length=0.014539 units=km normamps=100.0
new line.52879629 phases=3 bus1=80473035271182.1.2.3.0 bus2=80473045271182.1.2.3.0 r1=0.991 x1=0.1 length=0.029013 units=km normamps=100.0
new line.52879631 phases=3 bus1=80473055271182.1.2.3.0 bus2=80473065271182.1.2.3.0 r1=0.991 x1=0.1 length=0.03361 units=km normamps=100.0
new line.52879635 phases=3 bus1=80473095271182.1.2.3.0 bus2=80473105271182.1.2.3.0 r1=0.506 x1=0.1 length=0.042555 units=km normamps=157.0
new line.52879639 phases=3 bus1=80473095271182.1.2.3.0 bus2=80441455271182.1.2.3.0 r1=0.991 x1=0.1 length=0.0331 units=km normamps=100.0
new line.52879640 phases=3 bus1=80441455271182.1.2.3.0 bus2=80473125271182.1.2.3.0 r1=0.991 x1=0.1 length=0.013063 units=km normamps=100.0
new line.52879642 phases=3 bus1=80473135271182.1.2.3.0 bus2=80441465271182.1.2.3.0 r1=0.991 x1=0.1 length=0.036165 units=km normamps=100.0
new line.52879643 phases=3 bus1=80441465271182.1.2.3.0 bus2=80472835271182.1.2.3.0 r1=0.991 x1=0.1 length=0.012089 units=km normamps=100.0
new line.52879647 phases=3 bus1=80472865271182.1.2.3.0 bus2=80472875271182.1.2.3.0 r1=0.991 x1=0.1 length=0.037677 units=km normamps=100.0
new line.52879650 phases=3 bus1=80475135271182.1.2.3.0 bus2=80475145271182.1.2.3.0 r1=0.991 x1=0.1 length=0.028788 units=km normamps=100.0
new line.52879654 phases=3 bus1=80475155271182.1.2.3.0 bus2=80474895271182.1.2.3.0 r1=0.975 x1=0.47 length=0.020498 units=km normamps=152.0
new line.52879657 phases=3 bus1=80475165271182.1.2.3.0 bus2=80475175271182.1.2.3.0 r1=0.506 x1=0.1 length=0.0259 units=km normamps=157.0
new line.54239709 phases=3 bus1=80472865271182.1.2.3.0 bus2=80472845271182.1.2.3.0 r1=0.991 x1=0.1 length=0.00858 units=km normamps=100.0
new line.52879559 phases=3 bus1=80472575271174.1.2.3.0 bus2=80472565271174.1.2.3.0 r1=0.975 x1=0.47 length=0.048612 units=km normamps=152.0
new line.52879569 phases=3 bus1=80472955483807.1.2.3.0 bus2=80472965483807.1.2.3.0 r1=0.506 x1=0.1 length=0.035257 units=km normamps=157.0
new line.52879625 phases=3 bus1=80440945271182.1.2.3.0 bus2=80472895271182.1.2.3.0 r1=0.991 x1=0.1 length=0.025385 units=km normamps=100.0
new line.52879632 phases=3 bus1=80473025271182.1.2.3.0 bus2=80473075271182.1.2.3.0 r1=0.991 x1=0.1 length=0.039308 units=km normamps=100.0
new line.52879645 phases=3 bus1=80472845271182.1.2.3.0 bus2=80472855271182.1.2.3.0 r1=0.991 x1=0.1 length=0.029543 units=km normamps=100.0
new line.54451754 phases=3 bus1=88755825271182.1.2.3.0 bus2=80475135271182.1.2.3.0 r1=0.991 x1=0.1 length=0.027245 units=km normamps=100.0
new line.54237739 phases=3 bus1=87144915271182.1.2.3.0 bus2=80472845271182.1.2.3.0 r1=0.991 x1=0.1 length=0.026867 units=km normamps=100.0
new line.52879564 phases=3 bus1=80441145483807.1.2.3.0 bus2=80472915483807.1.2.3.0 r1=1.551 x1=0.49 length=0.011423 units=km normamps=114.0
new line.52879648 phases=3 bus1=80472855271182.1.2.3.0 bus2=80472885271182.1.2.3.0 r1=0.991 x1=0.1 length=0.031197 units=km normamps=100.0
new line.52879656 phases=3 bus1=80474895271182.1.2.3.0 bus2=80475165271182.1.2.3.0 r1=0.506 x1=0.1 length=0.027163 units=km normamps=157.0
new line.52879644 phases=3 bus1=80472835271182.1.2.3.0 bus2=87144915271182.1.2.3.0 r1=0.991 x1=0.1 length=0.019135 units=km normamps=100.0
new line.52879572 phases=3 bus1=80472985271174.1.2.3.0 bus2=80472995271174.1.2.3.0 r1=0.613 x1=0.45 length=0.035415 units=km normamps=203.0
new line.52879641 phases=3 bus1=80473125271182.1.2.3.0 bus2=80473135271182.1.2.3.0 r1=0.991 x1=0.1 length=0.039163 units=km normamps=100.0
new line.52879565 phases=3 bus1=80441155483807.1.2.3.0 bus2=80441145483807.1.2.3.0 r1=1.551 x1=0.49 length=0.023479 units=km normamps=114.0
new line.52879553 phases=3 bus1=80472515271174.1.2.3.0 bus2=80472495271174.1.2.3.0 r1=0.613 x1=0.45 length=0.034374 units=km normamps=203.0
new line.54359663 phases=3 bus1=88053975483807.1.2.3.0 bus2=80473905483807.1.2.3.0 r1=0.506 x1=0.1 length=0.034402 units=km normamps=157.0

! 7. Cargas Consumidoras de Baixa Tensao (BT)
new load.UCBT_889918971255dfc41180aa92d772365774e3f8ff5db13e5095ecab702f569614 phases=3 model=1 bus=80472495271174.1.2.3.0 kv=0.38 conn=wye kw=37.0 daily=COM-Tipo7 vminpu=0.85
new load.UCBT_3e1f6a0871c1c8696b9397182ceaf421079c4a0a4777a2cfb6f65209d619c31f phases=2 model=1 bus=87173415451476.3.1.0 kv=0.38 conn=wye kw=16.0 daily=RES-Tipo3 vminpu=0.85
new load.UCBT_5eede3dc3b3b7baf1d038291799c1872a7d189df2f8923907553a3edc6486ecb phases=1 model=1 bus=80473135271182.1.0 kv=0.22 conn=wye kw=8.0 daily=RES-Tipo4 vminpu=0.85
new load.UCBT_c5ea729e2d41ce1b3dd56aa78a1c2d56603c2673f801ac5c98a473e36e6dfa51 phases=1 model=1 bus=80473105271182.1.0 kv=0.22 conn=wye kw=8.0 daily=RES-Tipo5 vminpu=0.85
new load.UCBT_4eb9dec4a831b2431c7ada9b71df9774e5382b75428d4ce49cbecfe8d24630ee phases=1 model=1 bus=80475135271182.3.0 kv=0.22 conn=wye kw=8.0 daily=RES-Tipo5 vminpu=0.85
new load.UCBT_05171350447c0e9709f13d08c4e20f7cc5d0df0dee874f9f668db4fcce9b8336 phases=1 model=1 bus=80475135271182.1.0 kv=0.22 conn=wye kw=8.0 daily=RES-Tipo5 vminpu=0.85
new load.UCBT_35e43ff3e7affa94d0a5a50f1cd7afdd9c8fc8db981dca2f42fc16dd26c6f9d5 phases=1 model=1 bus=80475135271182.2.0 kv=0.22 conn=wye kw=8.0 daily=RES-Tipo5 vminpu=0.85
new load.UCBT_07aa692926b5ddb2e4b9fca9b332d2bbfe588eb465fa64bb99dcd7b9a62234f9 phases=1 model=1 bus=80472875271182.1.0 kv=0.22 conn=wye kw=9.0 daily=RES-Tipo3 vminpu=0.85
new load.UCBT_d5fff864b8a1ec6ad3cedf3a938c3589681bc784d662376f9430361217e66220 phases=1 model=1 bus=80475135271182.3.0 kv=0.22 conn=wye kw=8.0 daily=RES-Tipo3 vminpu=0.85
new load.UCBT_32f26c4c46c0664c6b9c83dafe6e7c78ddb56a0deace8504f6826bba3e2fdd04 phases=2 model=1 bus=87173415451476.2.3.0 kv=0.38 conn=wye kw=16.0 daily=RES-Tipo3 vminpu=0.85
new load.UCBT_d55333019a5fc8cbfefb9d6a6e00cf5a682c24930301fc065cc52d904b80879a phases=1 model=1 bus=80472895271182.1.0 kv=0.22 conn=wye kw=8.0 daily=RES-Tipo1 vminpu=0.85
new load.UCBT_6bf8b7fcbba52c91f68930ed5f395a041cbb74d254386c970682280c0053c1b6 phases=3 model=1 bus=80473665271182.1.2.3.0 kv=0.38 conn=wye kw=37.0 daily=RES-Tipo7 vminpu=0.85
new load.UCBT_303fe3a626badd23156692e8b1e39051b365e6ba6add8267a7ddf0e4e190c674 phases=3 model=1 bus=80472895271182.1.2.3.0 kv=0.38 conn=wye kw=37.0 daily=RES-Tipo7 vminpu=0.85
new load.UCBT_76686481b48f91e153c453dace4a87f19fc550a32cd164b681abdddd044dd603 phases=1 model=1 bus=80472975483807.2.0 kv=0.22 conn=wye kw=7.0 daily=RES-Tipo4 vminpu=0.85
new load.UCBT_3a7bd5e9adf9391acb168f09e52274b811dbd19f09df7ae393ef876c4c057084 phases=3 model=1 bus=80475135271182.1.2.3.0 kv=0.38 conn=wye kw=8.0 daily=RES-Tipo7 vminpu=0.85
new load.UCBT_0aca6d03d0c2cd11f28366ed06f848832856d1df4c894bc6fbc6ea4426913e17 phases=1 model=1 bus=80475135271182.3.0 kv=0.22 conn=wye kw=8.0 daily=RES-Tipo6 vminpu=0.85
new load.UCBT_7e7af1ec25d5d8bc2d7dbd6d887bc1e9202512583c8a3b25af8915638041509b phases=1 model=1 bus=80472965483807.2.0 kv=0.22 conn=wye kw=8.0 daily=RES-Tipo6 vminpu=0.85
new load.UCBT_cfb7ce45c6c469d8715c8fcade0d9ede0799ae0fa7a4436771b7889ea5f7ed93 phases=1 model=1 bus=80473135271182.1.0 kv=0.22 conn=wye kw=8.0 daily=COM-Tipo2 vminpu=0.85
new load.UCBT_c1dbeaa67293b6c328862d45a4e260d0b63c2a92133d82d515115ab4fa930162 phases=2 model=1 bus=87173415451476.1.2.0 kv=0.38 conn=wye kw=16.0 daily=RES-Tipo6 vminpu=0.85
new load.UCBT_82788362988325a7a7af6fa9bff1090d90519b5f419e2491322a08de9e9f72e9 phases=2 model=1 bus=87173415451476.1.2.0 kv=0.38 conn=wye kw=16.0 daily=RES-Tipo4 vminpu=0.85
new load.UCBT_88197a3c86c1afc14e302e315dd49c1eba56bc41f67d4a03477b809c4d25d668 phases=2 model=1 bus=87173415451476.1.2.0 kv=0.38 conn=wye kw=16.0 daily=RES-Tipo4 vminpu=0.85
new load.UCBT_269358ee272cda0aaf4879e59c3f2cdc7bdf7c813dcb19e3d92d4700560befff phases=3 model=1 bus=87173415451476.1.2.3.0 kv=0.38 conn=wye kw=19.0 daily=RES-Tipo4 vminpu=0.85
new load.UCBT_a59ebd229da1033ee72a5257c03711138b5837b5a351805e98fb9ed3e528f696 phases=1 model=1 bus=80473105271182.2.0 kv=0.22 conn=wye kw=9.0 daily=RES-Tipo4 vminpu=0.85
new load.UCBT_ed60593a5f8f7e548d6606873f97d7cc54a236dde50f333565c08bfcac991ba1 phases=1 model=1 bus=80473105271182.1.0 kv=0.22 conn=wye kw=9.0 daily=RES-Tipo4 vminpu=0.85
new load.UCBT_8de86ff9696de71f10439b637d18254bd572e40e426273ffe1c2604179806204 phases=3 model=1 bus=80473105271182.1.2.3.0 kv=0.38 conn=wye kw=20.0 daily=RES-Tipo4 vminpu=0.85
new load.UCBT_bbda3ac9645e7a0234348f79c2cf40fbcc9d3ab86f98f7d3a63eea4ab73690c1 phases=3 model=1 bus=80473105271182.1.2.3.0 kv=0.38 conn=wye kw=20.0 daily=RES-Tipo4 vminpu=0.85
new load.UCBT_7052785cd6a9d5876b76dc1c54be0aef67a8b703cfa3fc4d605e81ab938ed542 phases=1 model=1 bus=80472975483807.2.0 kv=0.22 conn=wye kw=9.0 daily=RES-Tipo5 vminpu=0.85
new load.UCBT_64ea6a3b7eb64120ada2c35cdcde82c4b0e2c99730d1ec07ed95757468bbadaa phases=1 model=1 bus=80444275270732.1.0 kv=0.22 conn=wye kw=9.0 daily=RES-Tipo1 vminpu=0.85
new load.UCBT_c49badfc9782994397f0c72f0864dfabfc7ee0b07ebf64d52c9e9d57f4bd9b0a phases=2 model=1 bus=87173415451476.2.3.0 kv=0.38 conn=wye kw=16.0 daily=RES-Tipo4 vminpu=0.85
new load.UCBT_fdb95bc9895263dc2e1c47ea13e983543609acc6c9132d3f646619c3f004339f phases=2 model=1 bus=87173415451476.1.2.0 kv=0.38 conn=wye kw=16.0 daily=RES-Tipo1 vminpu=0.85
new load.UCBT_00a59f39b13fb591af97313493dc53dea4b427fdd403f25c96c8f6649a347a63 phases=1 model=1 bus=80475135271182.1.0 kv=0.22 conn=wye kw=8.0 daily=RES-Tipo5 vminpu=0.85
new load.UCBT_35daa9a332dd4b97f972d1c0025e350b7b5cc1c0b8c8c71d0fc8dd308b86a368 phases=3 model=1 bus=80473105271182.1.2.3.0 kv=0.38 conn=wye kw=19.0 daily=COM-Tipo3 vminpu=0.85
new load.UCBT_c1b74324bce056e007850e50a8baa3525c91588225a3d13d28a75d309178d903 phases=1 model=1 bus=80472975483807.2.0 kv=0.22 conn=wye kw=9.0 daily=RES-Tipo4 vminpu=0.85
new load.UCBT_38b4c6d943bc6125c3db9c8244e1c141e6e85b54b1a4d69ce73434c795548528 phases=1 model=1 bus=80475145271182.3.0 kv=0.22 conn=wye kw=8.0 daily=RES-Tipo8 vminpu=0.85
new load.UCBT_8e5b38ada9dc00b035e8500174cd77beb1c27a1ce36530901612ff7ac735322a phases=1 model=1 bus=80475145271182.3.0 kv=0.22 conn=wye kw=9.0 daily=RES-Tipo8 vminpu=0.85
new load.UCBT_7fdba46f071434c217f2112b6847f143914f08c4d736c168eaa336827de1adc9 phases=3 model=1 bus=80475145271182.1.2.3.0 kv=0.38 conn=wye kw=37.0 daily=RES-Tipo8 vminpu=0.85
new load.UCBT_7cecca9d82e44bc4d848c7d1d5abb8b9892a5ec4a7052319dba75c0b3dcd3cfd phases=1 model=1 bus=80475145271182.2.0 kv=0.22 conn=wye kw=8.0 daily=RES-Tipo8 vminpu=0.85
new load.UCBT_fabffae64f754bf4d4b9fd79c7f20563043f0489a1382e998df50831fe919a96 phases=1 model=1 bus=80472975483807.3.0 kv=0.22 conn=wye kw=4.0 daily=RES-Tipo5 vminpu=0.85
new load.UCBT_3cb4b769e242e529663b7d801598865a3167fdb60497730d695370fce9d4c769 phases=1 model=1 bus=80475145271182.2.0 kv=0.22 conn=wye kw=9.0 daily=RES-Tipo3 vminpu=0.85
new load.UCBT_5a684b6bafe2d19f48b5807da55a414f810b9010cedd47743a964e99fb75c6a5 phases=1 model=1 bus=80475145271182.2.0 kv=0.22 conn=wye kw=8.0 daily=RES-Tipo3 vminpu=0.85
new load.UCBT_e62c93637dd56bacdeaecfbdcfed31e8ac99b024e53d8059523ad3bf4ad96024 phases=1 model=1 bus=80475145271182.3.0 kv=0.22 conn=wye kw=8.0 daily=RES-Tipo3 vminpu=0.85
new load.UCBT_b44dfdb90be996c213e95fc6bf2e7ce259a5739fdad255b53492172c5356453a phases=1 model=1 bus=80475145271182.1.0 kv=0.22 conn=wye kw=9.0 daily=RES-Tipo3 vminpu=0.85
new load.UCBT_06ab1f93b82063782f895e22dbdef2f24ed2267ac2222ce023861748a3716d26 phases=1 model=1 bus=80473105271182.2.0 kv=0.22 conn=wye kw=9.0 daily=RES-Tipo3 vminpu=0.85
new load.UCBT_44b1a57b5055888cde663bc1df9c7701aad983bc36f5ce2c3b6b3be92c4b99e2 phases=1 model=1 bus=80475145271182.1.0 kv=0.22 conn=wye kw=9.0 daily=RES-Tipo3 vminpu=0.85
new load.UCBT_a8709e62d6c0f9fcfea135db29f02ed2abe8a3220d68e799671529e7382e6895 phases=2 model=1 bus=80473675271182.1.2.0 kv=0.38 conn=wye kw=16.0 daily=RES-Tipo1 vminpu=0.85
new load.UCBT_2b7e38e18c9273d0f953ecc7c437dbd980d4837705a286974aa8d00f8b995784 phases=2 model=1 bus=87173415451476.1.2.0 kv=0.38 conn=wye kw=16.0 daily=RES-Tipo1 vminpu=0.85
new load.UCBT_adce7110bdcd4de85dc06b00c1e3d66f09a1f1fee39a546c103928ac56beb6cb phases=2 model=1 bus=87173415451476.2.3.0 kv=0.38 conn=wye kw=16.0 daily=RES-Tipo1 vminpu=0.85
new load.UCBT_2fe3baf257c945e99e2e51efad345988a6972d45dd20807817677bcdfed35fb0 phases=2 model=1 bus=87173415451476.1.2.0 kv=0.38 conn=wye kw=16.0 daily=RES-Tipo1 vminpu=0.85
new load.UCBT_7481823a742664fd7d6772a4c47e594d07d873285ef6a5cdb299e1382463de31 phases=2 model=1 bus=80473675271182.1.2.0 kv=0.38 conn=wye kw=16.0 daily=RES-Tipo1 vminpu=0.85
new load.UCBT_6bfd2a80de468076533388757deadde27c35d0fddc46344165e321cc348fa875 phases=2 model=1 bus=87173415451476.1.2.0 kv=0.38 conn=wye kw=16.0 daily=RES-Tipo1 vminpu=0.85
new load.UCBT_85f0bbdb4d84e5d5f6723f45c781fa6e565bf43f40d503d53182396ae66cf2b6 phases=2 model=1 bus=87173415451476.1.2.0 kv=0.38 conn=wye kw=16.0 daily=RES-Tipo1 vminpu=0.85
new load.UCBT_033721dd7e5d3a65bbbc10301c7f90a81af7957be6d2f95d1a525c5ab176287c phases=2 model=1 bus=87173415451476.1.2.0 kv=0.38 conn=wye kw=16.0 daily=RES-Tipo1 vminpu=0.85
new load.UCBT_e88465e2aa1fd65d8617ffce53344fbe0373718d3c6a4cae54bf7ea22d865bbe phases=2 model=1 bus=87173415451476.2.3.0 kv=0.38 conn=wye kw=16.0 daily=RES-Tipo1 vminpu=0.85
new load.UCBT_ef9e491bded1a06de0570e5726d2095f03e45088c0adb606e2370402f782f274 phases=2 model=1 bus=87173415451476.2.3.0 kv=0.38 conn=wye kw=16.0 daily=RES-Tipo1 vminpu=0.85
new load.UCBT_44d48f995e58e8e5263835e31b7e40f4aea2bfa38d1d2e2b8ef470a846bb4262 phases=2 model=1 bus=87173415451476.1.2.0 kv=0.38 conn=wye kw=16.0 daily=RES-Tipo1 vminpu=0.85
new load.UCBT_be97c72e7f364b826ae109ec109f6fcec14f40335649d7e3cf2155b16ee6fd2d phases=2 model=1 bus=87173415451476.1.2.0 kv=0.38 conn=wye kw=16.0 daily=RES-Tipo1 vminpu=0.85
new load.UCBT_11a0bb4238960e7f87bde4d8cc1d77feb4dc866c70db51adba2524a120c3533c phases=2 model=1 bus=87173415451476.2.3.0 kv=0.38 conn=wye kw=16.0 daily=RES-Tipo1 vminpu=0.85
new load.UCBT_6f61f28650fbd49da3ebcef0eaffd9be5fabcf90d7f17cbba26deb4c0afff5c3 phases=2 model=1 bus=87173415451476.2.3.0 kv=0.38 conn=wye kw=16.0 daily=RES-Tipo2 vminpu=0.85
new load.UCBT_cfaa86db8eb137936be7657df093f7666f172743da01748ab7193f99d066c0d8 phases=2 model=1 bus=87173415451476.1.2.0 kv=0.38 conn=wye kw=16.0 daily=RES-Tipo1 vminpu=0.85
new load.UCBT_8c560abe9bf30adb71db3e2d6850c05ed13980148d73d4ed0dcbf8cc8a7ad218 phases=2 model=1 bus=87173415451476.1.2.0 kv=0.38 conn=wye kw=16.0 daily=RES-Tipo3 vminpu=0.85
new load.UCBT_d2c3b2ebf7ca0d97f81b7733769e376562df3254a2e8a54f27a5c8aa5b97ef56 phases=2 model=1 bus=87173415451476.1.2.0 kv=0.38 conn=wye kw=16.0 daily=RES-Tipo3 vminpu=0.85
new load.UCBT_03f49110b02cc2cf33b01228362fde7ccca5022c7d659f5ee813bdafe0a663c8 phases=2 model=1 bus=87173415451476.2.3.0 kv=0.38 conn=wye kw=16.0 daily=RES-Tipo3 vminpu=0.85
new load.UCBT_a7293f33985538055143749092a19847fc9d71b3fc57a7f98b92926ce1d072cb phases=2 model=1 bus=87173415451476.1.2.0 kv=0.38 conn=wye kw=16.0 daily=RES-Tipo4 vminpu=0.85
new load.UCBT_12c8d630a1362c89ec46c2a980a9e84d01794a6e84ed0c57317a09101b4b8ba6 phases=1 model=1 bus=80472965483807.2.0 kv=0.22 conn=wye kw=8.0 daily=RES-Tipo1 vminpu=0.85
new load.UCBT_bcb420bccea7646cc453f9ec2a1a61865cabab226cbec3641e1930ef70f5565d phases=2 model=1 bus=87173415451476.3.1.0 kv=0.38 conn=wye kw=16.0 daily=RES-Tipo2 vminpu=0.85
new load.UCBT_6fbe98776c0185f95283f6b10ff0e9fd6bee739fc5cc3cdb194c30091b066b7f phases=1 model=1 bus=80472545271174.1.0 kv=0.22 conn=wye kw=7.0 daily=RES-Tipo7 vminpu=0.85
new load.UCBT_1dafff059cbcce709274d82760a7d731e36cd00ede4e3ce855ce2a9923173c3c phases=1 model=1 bus=80473105271182.3.0 kv=0.22 conn=wye kw=9.0 daily=RES-Tipo4 vminpu=0.85
new load.UCBT_fb48fd371b779d4aef19904ce97fb456ecd5f2c668cbd4132cbe480d0bc16847 phases=3 model=1 bus=80472965483807.1.2.3.0 kv=0.38 conn=wye kw=37.0 daily=RES-Tipo6 vminpu=0.85
new load.UCBT_565c6c16fd0148b3482a3bd06f84a1397d214a1eb03d278427b8a1e429ef3354 phases=3 model=1 bus=80473665271182.1.2.3.0 kv=0.38 conn=wye kw=37.0 daily=RES-Tipo1 vminpu=0.85
new load.UCBT_d1535cb90d625da85699518cf3346b1d5cd256cf8576211fed821f549e9c2283 phases=1 model=1 bus=80473665271182.1.0 kv=0.22 conn=wye kw=4.0 daily=RES-Tipo6 vminpu=0.85
new load.UCBT_02ae2e2712cfd3efe3949b0e01b270a4da94ee5914b65a81a226759dfe4ab2e0 phases=3 model=1 bus=80472975483807.1.2.3.0 kv=0.38 conn=wye kw=37.0 daily=RES-Tipo4 vminpu=0.85
new load.UCBT_5ba3af42d726d939a7be1a35555122eea58eccf0b6b46739c053f77b4fff9ac1 phases=1 model=1 bus=80472975483807.2.0 kv=0.22 conn=wye kw=8.0 daily=RES-Tipo4 vminpu=0.85
new load.UCBT_d32d582b8e84e1b8856918d5e3550151438c99d2a8942329ed301d255272909a phases=1 model=1 bus=80472975483807.3.0 kv=0.22 conn=wye kw=8.0 daily=RES-Tipo4 vminpu=0.85
new load.UCBT_03499b464e631f766f6cf171f154acb5c46e6bd8b92f75a5295f79f8f65e5c94 phases=1 model=1 bus=80472975483807.1.0 kv=0.22 conn=wye kw=8.0 daily=RES-Tipo4 vminpu=0.85
new load.UCBT_e644233579a249443b7eae39e6e68611dff54d97979b8ffb2ea06a4c3e674948 phases=3 model=1 bus=80475145271182.1.2.3.0 kv=0.38 conn=wye kw=37.0 daily=RES-Tipo8 vminpu=0.85
new load.UCBT_d2cb4cc1c8c285a2b33cfcd22057997da7cb8afdc82470941298bf19140abd34 phases=2 model=1 bus=87173415451476.1.2.0 kv=0.38 conn=wye kw=16.0 daily=RES-Tipo1 vminpu=0.85
new load.UCBT_335f3181f36a51197c066ad4f0861070b92a744d388eb299618538da7c80ac45 phases=1 model=1 bus=80472965483807.3.0 kv=0.22 conn=wye kw=8.0 daily=RES-Tipo1 vminpu=0.85
new load.UCBT_d6b396382f952b4fb5684262ca76475760986cd1643df3b9eead006b21840cda phases=2 model=1 bus=87173415451476.1.2.0 kv=0.38 conn=wye kw=16.0 daily=RES-Tipo4 vminpu=0.85
new load.UCBT_767ab9d4924c7f5b6cc6bd1bf334b234c203ebc109efc91128a69e4de50e77c4 phases=1 model=1 bus=80473105271182.1.0 kv=0.22 conn=wye kw=9.0 daily=RES-Tipo5 vminpu=0.85
new load.UCBT_db6c0a23bbdf2323bd20f6cc85412175364f383841066393d147197ad5280a4a phases=1 model=1 bus=80475145271182.2.0 kv=0.22 conn=wye kw=9.0 daily=RES-Tipo3 vminpu=0.85
new load.UCBT_70b707ca9519b136efe227e4be44d24c7a8ee0b1f5343170d16a33aa6360dc89 phases=2 model=1 bus=87173415451476.1.2.0 kv=0.38 conn=wye kw=16.0 daily=RES-Tipo1 vminpu=0.85
new load.UCBT_edede5e5aa52970e67b8a897ecbd95c220abbc39e9c2c6c275f098bb65c69031 phases=2 model=1 bus=87173415451476.1.2.0 kv=0.38 conn=wye kw=16.0 daily=RES-Tipo1 vminpu=0.85
new load.UCBT_ae7ae9178062390d7f5b19566e7ec99916935676b4e1e439db953e5ad54d3243 phases=2 model=1 bus=80473675271182.1.2.0 kv=0.38 conn=wye kw=16.0 daily=RES-Tipo1 vminpu=0.85
new load.UCBT_a1e3835259a89fb06bea8e3320db618444fdf2fa22e7ac6fb4d9cc3f7481244a phases=2 model=1 bus=80473675271182.1.2.0 kv=0.38 conn=wye kw=16.0 daily=RES-Tipo1 vminpu=0.85
new load.UCBT_0ea5f226d38eba133ca93e10f0b990d6b4cca8b752996544a1af2d4de118ef0c phases=2 model=1 bus=87173415451476.1.2.0 kv=0.38 conn=wye kw=16.0 daily=RES-Tipo1 vminpu=0.85
new load.UCBT_9f13a3fdc6c957b3226b4606e78fcf7307269d6cab626fc5193df1fb268d73c3 phases=2 model=1 bus=87173415451476.2.3.0 kv=0.38 conn=wye kw=16.0 daily=RES-Tipo1 vminpu=0.85
new load.UCBT_8923ede8b3a5ceca3fcbf77cf820eda08d1c78c02431e9d4000c6bd28421fe4a phases=2 model=1 bus=87173415451476.2.3.0 kv=0.38 conn=wye kw=16.0 daily=RES-Tipo1 vminpu=0.85
new load.UCBT_111d7f3fee84c92cc4929610df46001744c6ecc7b69569d7e7285f62a68ffe75 phases=2 model=1 bus=87173415451476.1.2.0 kv=0.38 conn=wye kw=16.0 daily=RES-Tipo1 vminpu=0.85
new load.UCBT_c61c24d65dc20b0dd1afca23693f9297426fbea34e1747aea88563479793bbba phases=1 model=1 bus=80473905483807.1.0 kv=0.22 conn=wye kw=8.0 daily=RES-Tipo1 vminpu=0.85
new load.UCBT_ce6ac1c3aadcb57c890455a27e51f36689aa5d3d0deb8cd5d7e2af23695ffe14 phases=1 model=1 bus=80472965483807.2.0 kv=0.22 conn=wye kw=8.0 daily=RES-Tipo1 vminpu=0.85
new load.UCBT_b158efadc33b2397e1227b7c40d990993a222046943ec7df80e03b795f1b3a01 phases=2 model=1 bus=87173415451476.2.3.0 kv=0.38 conn=wye kw=16.0 daily=RES-Tipo4 vminpu=0.85
new load.UCBT_7ab8404375af6fdf2d77e7af998f6fcc32be32400c4a4a77ce377509b4b88323 phases=2 model=1 bus=87173415451476.1.2.0 kv=0.38 conn=wye kw=16.0 daily=RES-Tipo4 vminpu=0.85
new load.UCBT_4dfd612cb6d18ebb38f2014baedaba8981a84e52e64156abaa7a30f421886c16 phases=1 model=1 bus=80472965483807.1.0 kv=0.22 conn=wye kw=8.0 daily=RES-Tipo3 vminpu=0.85
new load.UCBT_c8ca4252ec871311e748c413e2a81ca66d4f33fa210a449e2139558aa174d70d phases=1 model=1 bus=80472965483807.1.0 kv=0.22 conn=wye kw=8.0 daily=RES-Tipo6 vminpu=0.85
new load.UCBT_c3239896f81d1d03d64555a7bdc8ae0db527b7b9cb9bd389006ebca7d5688ddc phases=1 model=1 bus=80445105271182.1.0 kv=0.22 conn=wye kw=8.0 daily=RES-Tipo2 vminpu=0.85
new load.UCBT_8debdde72f65271ff26b9e6631442f6c331113251de2f362d1a4d780f15ebfa9 phases=1 model=1 bus=80473105271182.3.0 kv=0.22 conn=wye kw=8.0 daily=RES-Tipo1 vminpu=0.85
new load.UCBT_06cebbbce35befca56a2679438c0dc7b3c0e14a2e2914de5639b0bda2d98b323 phases=1 model=1 bus=80472895271182.2.0 kv=0.22 conn=wye kw=9.0 daily=RES-Tipo7 vminpu=0.85
new load.UCBT_23c834fe45e95608560a89ecf31ae1685b554054e0a28ce094cbfb6965ad294d phases=3 model=1 bus=80472895271182.1.2.3.0 kv=0.38 conn=wye kw=9.0 daily=RES-Tipo7 vminpu=0.85
new load.UCBT_62a78a5262e78ee4a3c8c90f7ead70f3dbcb97f5930495571001a2c44ef4e80f phases=3 model=1 bus=80441155483807.1.2.3.0 kv=0.38 conn=wye kw=19.0 daily=COM-Tipo6 vminpu=0.85
new load.UCBT_0022bb981ab350d2142f19144d4c4edd6b4428b88dcd6a75b8590368569ddf8f phases=1 model=1 bus=80445105271182.2.0 kv=0.22 conn=wye kw=9.0 daily=RES-Tipo8 vminpu=0.85
new load.UCBT_031441c8301dcff107d0bb39eb88e2f751bf6dd7b95be24637148df0543f5d7c phases=1 model=1 bus=80473105271182.3.0 kv=0.22 conn=wye kw=8.0 daily=RES-Tipo7 vminpu=0.85
new load.UCBT_e98e519ad1c134628e11b03f7d491df6894cf5d07d6ad6afd79cafc13fd7e210 phases=1 model=1 bus=80475145271182.1.0 kv=0.22 conn=wye kw=8.0 daily=RES-Tipo8 vminpu=0.85
new load.UCBT_9e46f533bdbbc0f0027e1525d37332df148db372a27578da6a58a4a0b7d44779 phases=1 model=1 bus=80475145271182.2.0 kv=0.22 conn=wye kw=8.0 daily=RES-Tipo8 vminpu=0.85
new load.UCBT_c582f547824c998c0f06d96f8f0505ed93ad793191f0d30a3b053a2243035dd6 phases=1 model=1 bus=80475145271182.1.0 kv=0.22 conn=wye kw=8.0 daily=RES-Tipo8 vminpu=0.85
new load.UCBT_d92046d5960ed3ba293b1d5266a33d199ba4c0076f6757a46faaea0995037ef3 phases=3 model=1 bus=80441445271182.1.2.3.0 kv=0.38 conn=wye kw=37.0 daily=RES-Tipo6 vminpu=0.85
new load.UCBT_ea939c3689ce8ca4918231a01c4bdfab63c574b289168524aac4b5bef562efab phases=1 model=1 bus=80441445271182.1.0 kv=0.22 conn=wye kw=8.0 daily=RES-Tipo6 vminpu=0.85
new load.UCBT_b59e8a3d6673befa95d0cb3ffa74d67e04477d77084d0842bdf976acbffa445e phases=1 model=1 bus=80441445271182.3.0 kv=0.22 conn=wye kw=8.0 daily=RES-Tipo6 vminpu=0.85
new load.UCBT_514fc155780048ea9ee1a176ceebc28ce19174977f508a4cee96a58ff17e2766 phases=1 model=1 bus=80441445271182.1.0 kv=0.22 conn=wye kw=8.0 daily=RES-Tipo6 vminpu=0.85
new load.UCBT_70d0b9d56e09fd48c623b87ba5f5ce86bd1bf726784fee17bd52dd2eba58f060 phases=1 model=1 bus=80441445271182.3.0 kv=0.22 conn=wye kw=8.0 daily=RES-Tipo6 vminpu=0.85
new load.UCBT_ece4cfc667bd8ef8fb1a7a2aaa9a01ed11ddb26cd4c79e8bb86420710e53657f phases=1 model=1 bus=80441445271182.2.0 kv=0.22 conn=wye kw=8.0 daily=RES-Tipo6 vminpu=0.85
new load.UCBT_6f3e49504526af22da3b3044048deeb2453a605b9a80a15b93de4ab4328607f9 phases=1 model=1 bus=80473105271182.1.0 kv=0.22 conn=wye kw=8.0 daily=RES-Tipo1 vminpu=0.85
new load.UCBT_f88dc35902756b7cfbf892ae860c2036f252ed43cdb42e5fba4924d804a9a9d1 phases=1 model=1 bus=80441445271182.2.0 kv=0.22 conn=wye kw=8.0 daily=RES-Tipo6 vminpu=0.85
new load.UCBT_9f02cd7d96c13968ed0c715fe179220be381feb1b0344f52d47c938b5a95ae2f phases=3 model=1 bus=80472455271174.1.2.3.0 kv=0.38 conn=wye kw=37.0 daily=RES-Tipo6 vminpu=0.85
new load.UCBT_54a700263f080b185cbb037239973c7dd83a10d848deef1dbab90be9cc05ba19 phases=2 model=1 bus=87173415451476.1.2.0 kv=0.38 conn=wye kw=16.0 daily=RES-Tipo1 vminpu=0.85
new load.UCBT_66ef2e8f26a6628385e4a8b8c262f9f26ee76e84617e988a93895e08e785a534 phases=2 model=1 bus=87173415451476.2.3.0 kv=0.38 conn=wye kw=16.0 daily=RES-Tipo1 vminpu=0.85
new load.UCBT_6a4ec60bbbc303208af14890d49d75bb5a30ed0cdbfa378ccf2305d62f23721e phases=2 model=1 bus=87173415451476.1.2.0 kv=0.38 conn=wye kw=16.0 daily=RES-Tipo1 vminpu=0.85
new load.UCBT_996fe3c50834e27c5f16ce23fde0b43d722c723acb759846a55449e05be361b4 phases=2 model=1 bus=87173415451476.2.3.0 kv=0.38 conn=wye kw=16.0 daily=RES-Tipo1 vminpu=0.85
new load.UCBT_62384b4ed6ec2117b2df6428bb4217ca6fad4a2c2fe145203e1d92ff9aa4ddae phases=2 model=1 bus=80473675271182.1.2.0 kv=0.38 conn=wye kw=16.0 daily=RES-Tipo1 vminpu=0.85
new load.UCBT_ce90d91218388f4a04232590405f569df2746e94b81655fc7136e20f6514a4b1 phases=2 model=1 bus=80473675271182.1.2.0 kv=0.38 conn=wye kw=16.0 daily=RES-Tipo1 vminpu=0.85
new load.UCBT_91e90c146891462df765c93edcc94c0dd75eef21c88d35761a2b3d04cf1a372a phases=2 model=1 bus=87173415451476.1.2.0 kv=0.38 conn=wye kw=16.0 daily=RES-Tipo1 vminpu=0.85
new load.UCBT_61ebcedde7e4cbe1a2c0c1fa8774bd71e787836d0aab0758f14c9f56ccb7cf54 phases=2 model=1 bus=87173415451476.1.2.0 kv=0.38 conn=wye kw=16.0 daily=RES-Tipo1 vminpu=0.85
new load.UCBT_2b23882657d01b9dfa5a69e5a6d9d9ed59e5f3bd315b918701016526495b83fd phases=2 model=1 bus=87173415451476.2.3.0 kv=0.38 conn=wye kw=16.0 daily=RES-Tipo1 vminpu=0.85
new load.UCBT_d464fd7b05f7670420eed70851a738c2f4fff70b3a2839c5b05be7632bce0700 phases=2 model=1 bus=87173415451476.2.3.0 kv=0.38 conn=wye kw=16.0 daily=RES-Tipo1 vminpu=0.85
new load.UCBT_4abe21e02127ded31ca2df75ded1f72f2cb902974f30f70c944ca179e127dfae phases=3 model=1 bus=87173415451476.1.2.3.0 kv=0.38 conn=wye kw=37.0 daily=RES-Tipo1 vminpu=0.85
new load.UCBT_8079e1b6358d25812bc2f494523df0d2d6572269828583b472b92a90c6977fdf phases=2 model=1 bus=87173415451476.2.3.0 kv=0.38 conn=wye kw=16.0 daily=RES-Tipo1 vminpu=0.85
new load.UCBT_b1a03c9072b064193206f086a537dffca3f5a9f83a89d1772124925471bcc71b phases=2 model=1 bus=87173415451476.3.1.0 kv=0.38 conn=wye kw=16.0 daily=RES-Tipo1 vminpu=0.85
new load.UCBT_e1d8b245ee6cd1ca19ba909dbe5fffd4bd8769fe6687df8aa02ab6631ad67dc5 phases=2 model=1 bus=87173415451476.1.2.0 kv=0.38 conn=wye kw=16.0 daily=RES-Tipo1 vminpu=0.85
new load.UCBT_b2f0fc4d1eed96e8a7b766ac49196fdcb7eb866bbc49be0f03da197e192f8382 phases=2 model=1 bus=87173415451476.2.3.0 kv=0.38 conn=wye kw=16.0 daily=RES-Tipo1 vminpu=0.85
new load.UCBT_baf10af5dbe61027448cb8d0895a0edba9cc17ea55060eb883649caa6e1f724a phases=2 model=1 bus=87173415451476.1.2.0 kv=0.38 conn=wye kw=16.0 daily=RES-Tipo1 vminpu=0.85
new load.UCBT_b070b46aa9ee7620c651e2ded15b6b18f764d209217b4e785269c9c7571051bd phases=2 model=1 bus=87173415451476.3.1.0 kv=0.38 conn=wye kw=16.0 daily=RES-Tipo1 vminpu=0.85
new load.UCBT_9fdfcc9cae655ed928cb56155684461520f95822ce52471ac0050202169101df phases=2 model=1 bus=87173415451476.2.3.0 kv=0.38 conn=wye kw=16.0 daily=RES-Tipo1 vminpu=0.85
new load.UCBT_ae89f2b5bfa0f69ed8d14ba711f8a8846734b32904949b01f3cfe304ac784100 phases=2 model=1 bus=87173415451476.1.2.0 kv=0.38 conn=wye kw=10.0 daily=RES-Tipo2 vminpu=0.85
new load.UCBT_12e292e571288eef83e8d824381b5916bace1823920c768715b6b7bcdd477443 phases=2 model=1 bus=87173415451476.1.2.0 kv=0.38 conn=wye kw=16.0 daily=RES-Tipo1 vminpu=0.85
new load.UCBT_ad0274cc1c9f51a0a78e53baa5c4cf638e55c698108c9636f47167180acaf20e phases=2 model=1 bus=87173415451476.2.3.0 kv=0.38 conn=wye kw=16.0 daily=RES-Tipo1 vminpu=0.85
new load.UCBT_c39d07e580d94653eb771fe73beb2cecd88ad3c10e111505ea757c7da1843615 phases=1 model=1 bus=80472965483807.1.0 kv=0.22 conn=wye kw=8.0 daily=RES-Tipo3 vminpu=0.85
new load.UCBT_2adea695ce679ac8193c1a0e7c07f65456641a03d6bd2a070aa84aea1772648a phases=1 model=1 bus=80472965483807.2.0 kv=0.22 conn=wye kw=8.0 daily=RES-Tipo3 vminpu=0.85
new load.UCBT_aede4463a610885f73f6035567da4b2a4667efcd5505cf97cce2ba2736fab7a4 phases=1 model=1 bus=80472965483807.3.0 kv=0.22 conn=wye kw=8.0 daily=RES-Tipo3 vminpu=0.85
new load.UCBT_0fcdc23ebe9a652dc6f11f2fb7daa4f723e956ad56ddfc119e53c99da60ed2c3 phases=2 model=1 bus=87173415451476.3.1.0 kv=0.38 conn=wye kw=16.0 daily=RES-Tipo3 vminpu=0.85
new load.UCBT_c8433146e7db522ff6a05a65cde7f676b427fd344b32b68d8b0fa9595c5391bb phases=1 model=1 bus=80472965483807.2.0 kv=0.22 conn=wye kw=8.0 daily=RES-Tipo3 vminpu=0.85
new load.UCBT_7896d8d092ffe3762a4995e74b0a6804d79df17c1b3bb0a01a38b0fef93ca127 phases=1 model=1 bus=80472965483807.2.0 kv=0.22 conn=wye kw=8.0 daily=RES-Tipo6 vminpu=0.85
new load.UCBT_28da038f4e9a37cef24b2142feaaa988fc1b900ec912ad5377569436880e2b03 phases=1 model=1 bus=80472965483807.1.0 kv=0.22 conn=wye kw=8.0 daily=RES-Tipo4 vminpu=0.85
new load.UCBT_b626108527c5dc5e7ca16a26971d2c0aa3ab544c64cb8aba417b04c1273fc2df phases=2 model=1 bus=87173415451476.1.2.0 kv=0.38 conn=wye kw=16.0 daily=RES-Tipo2 vminpu=0.85
new load.UCBT_6bb91de49fd108a630eb342cec97cbf1b2dd644439814378c1281c0a7038fa93 phases=3 model=1 bus=80473105271182.1.2.3.0 kv=0.38 conn=wye kw=20.0 daily=RES-Tipo4 vminpu=0.85
new load.UCBT_926782b63b60616805527299b8fe20647fa9e31a319f028f5d5a60a07f6801d1 phases=3 model=1 bus=80472895271182.1.2.3.0 kv=0.38 conn=wye kw=37.0 daily=RES-Tipo8 vminpu=0.85
new load.UCBT_77ac6b6c26bddb5367e6c221567581fb3412b62a6735c80faf17fc14fd81622d phases=1 model=1 bus=80473135271182.1.0 kv=0.22 conn=wye kw=8.0 daily=RES-Tipo4 vminpu=0.85
new load.UCBT_46d5ab14fe2d6d949a47ba9bb1b93d8412e9e2a31bc69e26bc2e5ba1f3daf5b7 phases=1 model=1 bus=80440985270730.2.0 kv=0.22 conn=wye kw=9.0 daily=RES-Tipo2 vminpu=0.85
new load.UCBT_1793a8d7839a1b3ca95124c45200876ebdc9ecc303d54a42c73983d2ad326447 phases=3 model=1 bus=80443085483807.1.2.3.0 kv=0.38 conn=wye kw=37.0 daily=COM-Tipo4 vminpu=0.85
new load.UCBT_ff79c7726159b3d54f7d083b587097cd3eb68f754e5404da1715b32684e937b8 phases=1 model=1 bus=80475145271182.1.0 kv=0.22 conn=wye kw=8.0 daily=RES-Tipo8 vminpu=0.85
new load.UCBT_ee9d120c69618074a9a9c0a121498d8bc7499de282c00570de7b89977f12e0ef phases=1 model=1 bus=80444275270732.1.0 kv=0.22 conn=wye kw=8.0 daily=RES-Tipo4 vminpu=0.85
new load.UCBT_f7020d9a86134bed9ee7658f78e2a7f3d2b8da06374eab8192653c82335220c0 phases=1 model=1 bus=80444275270732.1.0 kv=0.22 conn=wye kw=8.0 daily=RES-Tipo4 vminpu=0.85
new load.UCBT_aa5c685c3d0ab0f47e169fd4010a6c7a93453784ec3d62fe24f12e447f870cad phases=1 model=1 bus=80444275270732.1.0 kv=0.22 conn=wye kw=8.0 daily=RES-Tipo4 vminpu=0.85
new load.UCBT_2f105569420df907b23afc3134c982b94cee8928f67e87d383a574e6029392f7 phases=1 model=1 bus=80444275270732.3.0 kv=0.22 conn=wye kw=8.0 daily=RES-Tipo4 vminpu=0.85
new load.UCBT_aa6d2daba4763781f40665e22c23234fffe6336ce69ff40289dce90f575642b4 phases=1 model=1 bus=80444275270732.1.0 kv=0.22 conn=wye kw=8.0 daily=RES-Tipo4 vminpu=0.85
new load.UCBT_04784196b5de2d0d8dea7c69aaee6d5791276c0833a173269abab00fd1163a9d phases=3 model=1 bus=80444275270732.1.2.3.0 kv=0.38 conn=wye kw=37.0 daily=RES-Tipo7 vminpu=0.85
new load.UCBT_e8d52a1163df4d9d47aab9cc672ce4d3c162b7ac6755a24bccf8ab53438d34bd phases=2 model=1 bus=87173415451476.3.1.0 kv=0.38 conn=wye kw=16.0 daily=RES-Tipo1 vminpu=0.85
new load.UCBT_de295304f1d6ef40c0c2621988a15fb072b4d727d5d2ea6142faf4ef16385967 phases=2 model=1 bus=80473675271182.1.2.0 kv=0.38 conn=wye kw=16.0 daily=RES-Tipo1 vminpu=0.85
new load.UCBT_7ca8adc6d46ea2060739156fcc8c95ce0318c7cf4840c718354f8e6817f080de phases=2 model=1 bus=87173415451476.1.2.0 kv=0.38 conn=wye kw=16.0 daily=RES-Tipo1 vminpu=0.85
new load.UCBT_62100cd089460ae4d9d2be6ed8a45453b8999b3587e534da2f7186041108d3f7 phases=2 model=1 bus=87173415451476.2.3.0 kv=0.38 conn=wye kw=16.0 daily=RES-Tipo4 vminpu=0.85
new load.UCBT_28439d7c9680b1edf4904071850e4c389d312b9f760592f5225ab187c871ba56 phases=2 model=1 bus=87173415451476.1.2.0 kv=0.38 conn=wye kw=16.0 daily=RES-Tipo4 vminpu=0.85
new load.UCBT_5e6c1a84ea61a659fb364a8d1506e47609a325e3061f5498a462c900285d5d8a phases=2 model=1 bus=87173415451476.2.3.0 kv=0.38 conn=wye kw=16.0 daily=RES-Tipo4 vminpu=0.85
new load.UCBT_027b270992c0e90ddf67f764725e177ab28507e0525ff069f598882db44b392e phases=2 model=1 bus=87173415451476.1.2.0 kv=0.38 conn=wye kw=16.0 daily=RES-Tipo1 vminpu=0.85
new load.UCBT_10cb95f73ac40ab19b33021ba8643628e9d09047a7c2fd23d28becc83434d00e phases=2 model=1 bus=87173415451476.3.1.0 kv=0.38 conn=wye kw=16.0 daily=RES-Tipo1 vminpu=0.85
new load.UCBT_50327deafecc9879cafb841b944a16a2bd87c58eedd70134b1006f0fbad22f1f phases=2 model=1 bus=87173415451476.1.2.0 kv=0.38 conn=wye kw=8.0 daily=RES-Tipo1 vminpu=0.85
new load.UCBT_432b9d954b1b2a106ca75664cc19d85893a1f15e86d3df98be7e19ceb8d629fe phases=3 model=1 bus=87173415451476.1.2.3.0 kv=0.38 conn=wye kw=37.0 daily=RES-Tipo4 vminpu=0.85
new load.UCBT_f75e68b2f24ac8760bce4f3ce39204da70fe58843e9a573a008fac34ce8b13d5 phases=2 model=1 bus=87173415451476.1.2.0 kv=0.38 conn=wye kw=16.0 daily=RES-Tipo1 vminpu=0.85
new load.UCBT_1811db04a4b583df74dbc81da92b3e01146c4087d4e919ff8d299258f6dc7013 phases=2 model=1 bus=87173415451476.1.2.0 kv=0.38 conn=wye kw=16.0 daily=RES-Tipo6 vminpu=0.85
new load.UCBT_aebb7d72c34abbb1456d23fbd189eb931433976b12f77f18187358bc707856be phases=2 model=1 bus=87173415451476.1.2.0 kv=0.38 conn=wye kw=16.0 daily=RES-Tipo1 vminpu=0.85
new load.UCBT_3d9d4618849c93fb8d5de8ff9081f98e7c82441938cf9efaac23e277f84f6350 phases=2 model=1 bus=87173415451476.2.3.0 kv=0.38 conn=wye kw=16.0 daily=RES-Tipo1 vminpu=0.85
new load.UCBT_11825a2444772d0e902e1dbd6c176f7736b7178812270c6708273e1ec7ebabf4 phases=1 model=1 bus=80472965483807.1.0 kv=0.22 conn=wye kw=8.0 daily=RES-Tipo1 vminpu=0.85
new load.UCBT_c8f00aebecae58520b8ffc60fde92eb5506b31188eb5991a05a7e7ea4dec0207 phases=1 model=1 bus=80472965483807.2.0 kv=0.22 conn=wye kw=8.0 daily=RES-Tipo1 vminpu=0.85
new load.UCBT_4157a88b2019f6fb447856c5a11a9e2de1d4724f7d0c0ea968e8bf7290143f8e phases=2 model=1 bus=87173415451476.2.3.0 kv=0.38 conn=wye kw=16.0 daily=RES-Tipo1 vminpu=0.85
new load.UCBT_251a60126f96e67605fe66dbf23e808c31bda438abb04db8c0f2c293ffaf83dc phases=1 model=1 bus=80472965483807.2.0 kv=0.22 conn=wye kw=9.0 daily=RES-Tipo2 vminpu=0.85
new load.UCBT_c31f30351db032ae86d02a7f670d1611d9c3c715e6f2dd526f4d3c7c55b0108e phases=2 model=1 bus=88053975483807.2.3.0 kv=0.38 conn=wye kw=9.0 daily=RES-Tipo4 vminpu=0.85
new load.UCBT_27a2b2632876c736565660f811f097288c688610984dacbca33e3779a596c935 phases=3 model=1 bus=80441155483807.1.2.3.0 kv=0.38 conn=wye kw=9.0 daily=COM-Tipo6 vminpu=0.85
new load.UCBT_79640e204b8691ec97a2613e7b28976d14e7133df9278073ad3deb68e5f9309e phases=3 model=1 bus=80473105271182.1.2.3.0 kv=0.38 conn=wye kw=37.0 daily=RES-Tipo4 vminpu=0.85
new load.UCBT_1a15f96ee60ea408e55a84196d6c8b995512ec1ada9a2d7a80ac03c91f2e3322 phases=1 model=1 bus=80444275270732.1.0 kv=0.22 conn=wye kw=8.0 daily=RES-Tipo4 vminpu=0.85
new load.UCBT_affa388be39b5c1e07023b0163f90e70d993db517d1cb90ebc45f9c66e5d38de phases=1 model=1 bus=80444275270732.1.0 kv=0.22 conn=wye kw=8.0 daily=RES-Tipo7 vminpu=0.85
new load.UCBT_4e1ad35280c8e0a0de35b60912037928541565906362e246a452b0a4f1221dfd phases=1 model=1 bus=80444275270732.2.0 kv=0.22 conn=wye kw=8.0 daily=RES-Tipo7 vminpu=0.85
new load.UCBT_cb00b4384482fc209258cff5eca53dc1b0850049e47524aa551f320806775486 phases=1 model=1 bus=80444275270732.3.0 kv=0.22 conn=wye kw=8.0 daily=RES-Tipo7 vminpu=0.85
new load.UCBT_8f27bc5aca3fe9decc1a32f82df943d73563565f7ed69550bcf2f7287eee0be2 phases=1 model=1 bus=80472975483807.1.0 kv=0.22 conn=wye kw=8.0 daily=RES-Tipo1 vminpu=0.85
new load.UCBT_3b721509a7ee57cc527fd82764b8f12003d55c9474e921bdeedc5427240995b8 phases=1 model=1 bus=80472925483807.2.0 kv=0.22 conn=wye kw=8.0 daily=RES-Tipo3 vminpu=0.85
new load.UCBT_abfca5e58eefcbd6a75b811474e01401ac6cd142b738f54667dfa3a73353fbdd phases=3 model=1 bus=80473135271182.1.2.3.0 kv=0.38 conn=wye kw=37.0 daily=COM-Tipo2 vminpu=0.85
new load.UCBT_c6120eef78103d41d44b8493fd4ae47c129713745572f78f549aecad9f0ba9e1 phases=1 model=1 bus=80441465271182.1.0 kv=0.22 conn=wye kw=8.0 daily=RES-Tipo2 vminpu=0.85
new load.UCBT_fe2c8bc4e895900615376f311f7d06ed2aae42502250cfeb33b484d106afae1b phases=1 model=1 bus=80472455271174.1.0 kv=0.22 conn=wye kw=8.0 daily=RES-Tipo2 vminpu=0.85
new load.UCBT_044223e072a2b1850cd3232aa747a96e63b627adb906c104b0c81787c7bcef11 phases=3 model=1 bus=80444275270732.1.2.3.0 kv=0.38 conn=wye kw=19.0 daily=RES-Tipo2 vminpu=0.85
new load.UCBT_82b299f82f3ed754bac8e932c08d1662ea97cf0286183307b0c1c550ddc543d6 phases=1 model=1 bus=80473115271182.1.0 kv=0.22 conn=wye kw=8.0 daily=RES-Tipo2 vminpu=0.85
new load.UCBT_fbad5ca8b94fb1560a782c1b9b6ef8ed0d655990b5e0d2fecc16c9e81e88e0e6 phases=3 model=1 bus=80473105271182.1.2.3.0 kv=0.38 conn=wye kw=37.0 daily=RES-Tipo2 vminpu=0.85
new load.UCBT_8c81f5e57fac04595c72a6e5fe299b4bc9b9c02ffcff0a75781cea5bcacea3eb phases=2 model=1 bus=80472875271182.1.2.0 kv=0.38 conn=wye kw=16.0 daily=RES-Tipo2 vminpu=0.85
new load.UCBT_d3415dff74fcef17c8c2896e3000c953148c09a814fb7f70bd8174ce977b188d phases=1 model=1 bus=80475135271182.1.0 kv=0.22 conn=wye kw=4.0 daily=RES-Tipo2 vminpu=0.85
new load.UCBT_98a47072a03114cdeaf68a9acf31b594b2120b024edc71209071f1af5506058d phases=1 model=1 bus=80475135271182.1.0 kv=0.22 conn=wye kw=9.0 daily=RES-Tipo2 vminpu=0.85
new load.UCBT_33a7533c83b4fc11004919f291aa2d75b94c9eae883c038daa7e381f70b9fccf phases=3 model=1 bus=80473675271182.1.2.3.0 kv=0.38 conn=wye kw=19.0 daily=RES-Tipo2 vminpu=0.85
new load.UCBT_6c505942b33ad11be02eaff0b46d8d1b2ddb0b71b776bcb8f7fe4506f8e4efaa phases=1 model=1 bus=80473665271182.3.0 kv=0.22 conn=wye kw=8.0 daily=RES-Tipo2 vminpu=0.85
new load.UCBT_0815db303d5b6b57177d5ef54e1582318c43c52264b27049f400ec304d12ec69 phases=1 model=1 bus=80472875271182.1.0 kv=0.22 conn=wye kw=8.0 daily=RES-Tipo3 vminpu=0.85
new load.UCBT_eedf6a5f5414855c6c00fc9abed4482e5eeab0c782da60436f58614b8903ffda phases=3 model=1 bus=80472875271182.1.2.3.0 kv=0.38 conn=wye kw=19.0 daily=RES-Tipo3 vminpu=0.85
new load.UCBT_44bd6af301ad5c6eca623aa7a0a767020fc6f272c5da14ba8ac4e13abb436cc8 phases=1 model=1 bus=80472875271182.1.0 kv=0.22 conn=wye kw=9.0 daily=COM-Tipo2 vminpu=0.85
new load.UCBT_f4dcf11cc31b9f25e5165ea7177b52d162376eb9d8a749b49bb3795fa4988a9c phases=1 model=1 bus=80472875271182.1.0 kv=0.22 conn=wye kw=8.0 daily=RES-Tipo3 vminpu=0.85
...